Circuit: * D:\Program\Projects\LLC_converter\Model\LLC_model.asc

Error on line 2140 : .model irfb1 nmos (vto=5 ron=0.26 qg=120n kp=6.4 cgs=2792p)
	* Unrecognized parameter "cgs" -- ignored
Direct Newton iteration for .op point succeeded.

Date: Tue Aug 13 16:20:25 2024
Total elapsed time: 3.014 seconds.

tnom = 27
temp = 27
method = modified trap
totiter = 635748
traniter = 635736
tranpoints = 211636
accept = 155027
rejected = 56609
matrix size = 25
fillins = 14
solver = Normal
Avg thread counts: 1.0/1.0/1.0/1.0
Matrix Compiler1: 2.32 KB object code size  0.6/0.6/[0.3]
Matrix Compiler2: 2.24 KB object code size  0.4/0.5/[0.3]

